<additional>
    <laneAreaDetector id="cam_N_0" lane="N_in_0" pos="-45" length="45" freq="60" file="out_cam.xml"/>
    <laneAreaDetector id="cam_N_1" lane="N_in_1" pos="-45" length="45" freq="60" file="out_cam.xml"/>
    <laneAreaDetector id="cam_N_2" lane="N_in_2" pos="-45" length="45" freq="60" file="out_cam.xml"/>

    <laneAreaDetector id="cam_S_0" lane="S_in_0" pos="-45" length="45" freq="60" file="out_cam.xml"/>
    <laneAreaDetector id="cam_S_1" lane="S_in_1" pos="-45" length="45" freq="60" file="out_cam.xml"/>
    <laneAreaDetector id="cam_S_2" lane="S_in_2" pos="-45" length="45" freq="60" file="out_cam.xml"/>

    <laneAreaDetector id="cam_E_0" lane="E_in_0" pos="-45" length="45" freq="60" file="out_cam.xml"/>
    <laneAreaDetector id="cam_E_1" lane="E_in_1" pos="-45" length="45" freq="60" file="out_cam.xml"/>
    <laneAreaDetector id="cam_E_2" lane="E_in_2" pos="-45" length="45" freq="60" file="out_cam.xml"/>

    <laneAreaDetector id="cam_W_0" lane="W_in_0" pos="-45" length="45" freq="60" file="out_cam.xml"/>
    <laneAreaDetector id="cam_W_1" lane="W_in_1" pos="-45" length="45" freq="60" file="out_cam.xml"/>
    <laneAreaDetector id="cam_W_2" lane="W_in_2" pos="-45" length="45" freq="60" file="out_cam.xml"/>
</additional>